# MP2 scan of the potential energy curve for Ar...Ar
                ! HFLD aug-cc-pvdz aug-cc-pvdz/C verytightscf
                *xyz 0 1
                Ar(1)	0    0	0.00000000000000
                Ar(2)	4.8	0    0.00000000000000
                Ar(3)	3.0	2.6457513110645907    0.00000000000000
                *