# MP2 scan of the potential energy curve for Ar...Ar
                ! HFLD aug-cc-pvdz aug-cc-pvdz/C verytightscf
                *xyz 0 1
                Ar(1)	0    0	0.00000000000000
                Ar(2)	3.6	0    0.00000000000000
                Ar(3)	2.5999999999999996	3.039736830714133    0.00000000000000
                *