# MP2 scan of the potential energy curve for Ar...Ar
                ! HFLD aug-cc-pvdz aug-cc-pvdz/C verytightscf
                *xyz 0 1
                Ar(1)	0    0	0.00000000000000
                Ar(2)	2.8	0    0.00000000000000
                Ar(3)	-0.6571428571428579	2.721794126179664    0.00000000000000
                *