# MP2 scan of the potential energy curve for Ar...Ar
                ! HFLD aug-cc-pvdz aug-cc-pvdz/C verytightscf
                *xyz 0 1
                Ar(1)	0    0	0.00000000000000
                Ar(2)	4.0	0    0.00000000000000
                Ar(3)	2.0	1.9595917942265422    0.00000000000000
                *