# MP2 scan of the potential energy curve for Ar...Ar
                ! HFLD aug-cc-pvdz aug-cc-pvdz/C verytightscf
                *xyz 0 1
                Ar(1)	0    0	0.00000000000000
                Ar(2)	2.8	0    0.00000000000000
                Ar(3)	-0.057142857142857356	2.7994168488950604    0.00000000000000
                *