# MP2 scan of the potential energy curve for Ar...Ar
                ! HFLD aug-cc-pvdz aug-cc-pvdz/C verytightscf
                *xyz 0 1
                Ar(1)	0    0	0.00000000000000
                Ar(2)	4.0	0    0.00000000000000
                Ar(3)	1.2800000000000002	2.932848444771738    0.00000000000000
                *