# MP2 scan of the potential energy curve for Ar...Ar
                ! HFLD aug-cc-pvdz aug-cc-pvdz/C verytightscf
                *xyz 0 1
                Ar(1)	0    0	0.00000000000000
                Ar(2)	4.0	0    0.00000000000000
                Ar(3)	3.9	2.7982137159266447    0.00000000000000
                *