# MP2 scan of the potential energy curve for Ar...Ar
                ! HFLD aug-cc-pvdz aug-cc-pvdz/C verytightscf
                *xyz 0 1
                Ar(1)	0    0	0.00000000000000
                Ar(2)	3.6	0    0.00000000000000
                Ar(3)	2.1333333333333337	2.3851391759997758    0.00000000000000
                *