# MP2 scan of the potential energy curve for Ar...Ar
                ! HFLD aug-cc-pvdz aug-cc-pvdz/C verytightscf
                *xyz 0 1
                Ar(1)	0    0	0.00000000000000
                Ar(2)	3.6	0    0.00000000000000
                Ar(3)	1.0888888888888888	2.579597059165311    0.00000000000000
                *