# MP2 scan of the potential energy curve for Ar...Ar
                ! HFLD aug-cc-pvdz aug-cc-pvdz/C verytightscf
                *xyz 0 1
                Ar(1)	0    0	0.00000000000000
                Ar(2)	2.8	0    0.00000000000000
                Ar(3)	1.9428571428571428	3.4964705236064813    0.00000000000000
                *