# MP2 scan of the potential energy curve for Ar...Ar
                ! HFLD aug-cc-pvdz aug-cc-pvdz/C verytightscf
                *xyz 0 1
                Ar(1)	0    0	0.00000000000000
                Ar(2)	2.8	0    0.00000000000000
                Ar(3)	-1.3142857142857145	2.472378017461021    0.00000000000000
                *