# MP2 scan of the potential energy curve for Ar...Ar
                ! HFLD aug-cc-pvdz aug-cc-pvdz/C verytightscf
                *xyz 0 1
                Ar(1)	0    0	0.00000000000000
                Ar(2)	3.2	0    0.00000000000000
                Ar(3)	1.0749999999999997	3.852839861712397    0.00000000000000
                *