# MP2 scan of the potential energy curve for Ar...Ar
                ! HFLD aug-cc-pvdz aug-cc-pvdz/C verytightscf
                *xyz 0 1
                Ar(1)	0    0	0.00000000000000
                Ar(2)	2.8	0    0.00000000000000
                Ar(3)	0.7428571428571434	4.336837933945207    0.00000000000000
                *