! HF MP2 aug-cc-pVTZ LooseSCF Opt 

    * xyz 0 1
    Cl      1.104182     0.637500     0.000000  # Cl of Molecule 1
    H       0.000000     0.000000     0.000000  # H of Molecule 1

    Cl      3.904182     0.637500     0.000000  # Cl of Molecule 2 (initial Cl-Cl distance between Molecule 1 and 2)
    H       5.008364     0.000000     0.000000  # H of Molecule 2

    Cl      2.504182     3.062371     0.000000  # Cl of Molecule 3 (form a triangle)
    H       2.504182     4.337371     0.000000  # H of Molecule 3
    *

    %geom
        Constraints
            { B 1 0 C }  # Fix H-Cl bond distance in the first HCl
            { B 3 2 C }  # Fix H-Cl bond distance in the second HCl
            { B 5 4 C }  # Fix H-Cl bond distance in the third HCl
            { A 2 0 1 C }  # Fix the H1-Cl1-Cl3 angle
            { A 0 2 3 C }  # Fix the H2-Cl2-Cl3 angle
            { A 2 4 5 C }  # Fix the H3-Cl3-Cl1 angle


        end
        Scan
            B 0 2 = 2.8, 5, 5  # Vary the Cl1-Cl2 distance
            B 2 4 = 2.8, 5, 5  # Vary the Cl1-Cl3 distance
            B 4 0 = 2.8, 5, 5  # Vary the Cl2-Cl3 distance
        end
    end

    %mp2
        Density relaxed
    end

    %scf
        ConvForced true  # Ensure SCF convergence
    end

    